* NGSPICE file created from tt_um_tim2305_adc_dac.ext - technology: sky130A

.subckt sky130_fd_pr__nfet_01v8_BBNS5X a_15_n500# a_n175_n674# a_n73_n500# a_n33_n588#
X0 a_15_n500# a_n33_n588# a_n73_n500# a_n175_n674# sky130_fd_pr__nfet_01v8 ad=1.45 pd=10.58 as=1.45 ps=10.58 w=5 l=0.15
.ends

.subckt sky130_fd_pr__pfet_01v8_XGA8MR a_n73_n1000# a_n33_n1097# w_n211_n1219# a_15_n1000#
X0 a_15_n1000# a_n33_n1097# a_n73_n1000# w_n211_n1219# sky130_fd_pr__pfet_01v8 ad=2.9 pd=20.58 as=2.9 ps=20.58 w=10 l=0.15
.ends

.subckt sky130_fd_pr__nfet_01v8_648S5X a_n73_n100# a_n33_n188# a_15_n100# a_n175_n274#
X0 a_15_n100# a_n33_n188# a_n73_n100# a_n175_n274# sky130_fd_pr__nfet_01v8 ad=0.29 pd=2.58 as=0.29 ps=2.58 w=1 l=0.15
.ends

.subckt sky130_fd_pr__pfet_01v8_XGASDL a_n73_n400# a_15_n400# w_n211_n619# a_n33_n497#
X0 a_15_n400# a_n33_n497# a_n73_n400# w_n211_n619# sky130_fd_pr__pfet_01v8 ad=1.16 pd=8.58 as=1.16 ps=8.58 w=4 l=0.15
.ends

.subckt pass_gate2 vdd ctrl a b vss
XXM1 a vss b ctrl sky130_fd_pr__nfet_01v8_BBNS5X
XXM2 b m1_3725_67# vdd a sky130_fd_pr__pfet_01v8_XGA8MR
XXM3 vss ctrl m1_3725_67# vss sky130_fd_pr__nfet_01v8_648S5X
XXM4 vdd m1_3725_67# vdd ctrl sky130_fd_pr__pfet_01v8_XGASDL
XXM5 a m1_3725_67# vdd b sky130_fd_pr__pfet_01v8_XGA8MR
XXM6 b m1_3725_67# vdd a sky130_fd_pr__pfet_01v8_XGA8MR
XXM7 a m1_3725_67# vdd b sky130_fd_pr__pfet_01v8_XGA8MR
XXM9 a vss b ctrl sky130_fd_pr__nfet_01v8_BBNS5X
XXM8 b vss a ctrl sky130_fd_pr__nfet_01v8_BBNS5X
XXM10 b vss a ctrl sky130_fd_pr__nfet_01v8_BBNS5X
.ends

.subckt sky130_fd_pr__nfet_01v8_ATLS57 a_15_n200# a_n175_n374# a_n73_n200# a_n33_n288#
X0 a_15_n200# a_n33_n288# a_n73_n200# a_n175_n374# sky130_fd_pr__nfet_01v8 ad=0.58 pd=4.58 as=0.58 ps=4.58 w=2 l=0.15
.ends

.subckt sky130_fd_pr__pfet_01v8_UGACMG a_15_n800# w_n211_n1019# a_n33_n897# a_n73_n800#
X0 a_15_n800# a_n33_n897# a_n73_n800# w_n211_n1019# sky130_fd_pr__pfet_01v8 ad=2.32 pd=16.58 as=2.32 ps=16.58 w=8 l=0.15
.ends

.subckt sky130_fd_pr__nfet_01v8_lvt_FMZK9W a_400_n200# a_n458_n200# a_n400_n288# a_n560_n374#
X0 a_400_n200# a_n400_n288# a_n458_n200# a_n560_n374# sky130_fd_pr__nfet_01v8_lvt ad=0.58 pd=4.58 as=0.58 ps=4.58 w=2 l=4
.ends

.subckt sky130_fd_pr__pfet_01v8_lvt_GWPMZG a_n200_n897# a_200_n800# w_n396_n1019#
+ a_n258_n800#
X0 a_200_n800# a_n200_n897# a_n258_n800# w_n396_n1019# sky130_fd_pr__pfet_01v8_lvt ad=2.32 pd=16.58 as=2.32 ps=16.58 w=8 l=2
.ends

.subckt sky130_fd_pr__pfet_01v8_lvt_ZQZ9VD w_n596_n619# a_n400_n497# a_400_n400# a_n458_n400#
X0 a_400_n400# a_n400_n497# a_n458_n400# w_n596_n619# sky130_fd_pr__pfet_01v8_lvt ad=1.16 pd=8.58 as=1.16 ps=8.58 w=4 l=4
.ends

.subckt sky130_fd_pr__pfet_01v8_GGY9VD a_800_n200# a_n858_n200# w_n996_n419# a_n800_n297#
X0 a_800_n200# a_n800_n297# a_n858_n200# w_n996_n419# sky130_fd_pr__pfet_01v8 ad=0.58 pd=4.58 as=0.58 ps=4.58 w=2 l=8
.ends

.subckt sky130_fd_pr__pfet_01v8_UGSVTG a_15_n500# w_n211_n719# a_n33_n597# a_n73_n500#
X0 a_15_n500# a_n33_n597# a_n73_n500# w_n211_n719# sky130_fd_pr__pfet_01v8 ad=1.45 pd=10.58 as=1.45 ps=10.58 w=5 l=0.15
.ends

.subckt compr2 vdd out in+ in- vss
XXM12 vss m1_5235_668# m1_5641_1468# vss sky130_fd_pr__nfet_01v8_648S5X
XXM14 out vss vss m1_5641_1468# sky130_fd_pr__nfet_01v8_ATLS57
XXM13 out vdd m1_5641_1468# vdd sky130_fd_pr__pfet_01v8_UGACMG
XXM1 vss m1_758_n1084# m1_758_n1084# vss sky130_fd_pr__nfet_01v8_lvt_FMZK9W
XXM2 m1_1934_n647# vss m1_1934_n647# vss sky130_fd_pr__nfet_01v8_lvt_FMZK9W
XXM3 vss m1_2901_n838# m1_1934_n647# vss sky130_fd_pr__nfet_01v8_lvt_FMZK9W
XXM4 m1_5235_668# vss m1_758_n1084# vss sky130_fd_pr__nfet_01v8_lvt_FMZK9W
XXM5 in+ m1_740_n248# vdd m1_758_n1084# sky130_fd_pr__pfet_01v8_lvt_GWPMZG
XXM6 in- m1_1934_n647# vdd m1_740_n248# sky130_fd_pr__pfet_01v8_lvt_GWPMZG
XXM7 vdd m1_2901_n838# m1_3261_1010# m1_2901_n838# sky130_fd_pr__pfet_01v8_lvt_ZQZ9VD
XXM9 vdd m1_2901_n838# m1_5235_668# m1_3261_1010# sky130_fd_pr__pfet_01v8_lvt_ZQZ9VD
XXM8 m1_740_n248# vdd vdd vss sky130_fd_pr__pfet_01v8_GGY9VD
XXM10 m1_3261_1010# vdd vss vdd sky130_fd_pr__pfet_01v8_UGSVTG
XXM11 vdd m1_5641_1468# vdd m1_5235_668# sky130_fd_pr__pfet_01v8_XGASDL
.ends

.subckt sky130_fd_pr__res_xhigh_po_0p35_MGD972 a_n35_n486# a_n165_n616# a_n35_54#
X0 a_n35_54# a_n35_n486# a_n165_n616# sky130_fd_pr__res_xhigh_po_0p35 l=0.7
.ends

.subckt sky130_fd_sc_hd__dfxtp_1 CLK D VGND VNB VPB VPWR Q
X0 Q a_1059_315# VGND VNB sky130_fd_pr__nfet_01v8 ad=0.169 pd=1.82 as=0.08775 ps=0.92 w=0.65 l=0.15
X1 a_891_413# a_193_47# a_634_159# VNB sky130_fd_pr__nfet_01v8 ad=0.0684 pd=0.74 as=0.0989 ps=0.995 w=0.36 l=0.15
X2 a_561_413# a_27_47# a_466_413# VPB sky130_fd_pr__pfet_01v8_hvt ad=0.07665 pd=0.785 as=0.06825 ps=0.745 w=0.42 l=0.15
X3 VPWR CLK a_27_47# VPB sky130_fd_pr__pfet_01v8_hvt ad=0.0864 pd=0.91 as=0.1664 ps=1.8 w=0.64 l=0.15
X4 Q a_1059_315# VPWR VPB sky130_fd_pr__pfet_01v8_hvt ad=0.26 pd=2.52 as=0.135 ps=1.27 w=1 l=0.15
X5 a_381_47# D VPWR VPB sky130_fd_pr__pfet_01v8_hvt ad=0.05775 pd=0.695 as=0.1092 ps=1.36 w=0.42 l=0.15
X6 VGND a_634_159# a_592_47# VNB sky130_fd_pr__nfet_01v8 ad=0.12095 pd=1.085 as=0.0696 ps=0.765 w=0.42 l=0.15
X7 VPWR a_891_413# a_1059_315# VPB sky130_fd_pr__pfet_01v8_hvt ad=0.135 pd=1.27 as=0.27 ps=2.54 w=1 l=0.15
X8 a_466_413# a_193_47# a_381_47# VPB sky130_fd_pr__pfet_01v8_hvt ad=0.06825 pd=0.745 as=0.05775 ps=0.695 w=0.42 l=0.15
X9 VPWR a_634_159# a_561_413# VPB sky130_fd_pr__pfet_01v8_hvt ad=0.178875 pd=1.26 as=0.07665 ps=0.785 w=0.42 l=0.15
X10 a_634_159# a_466_413# VGND VNB sky130_fd_pr__nfet_01v8 ad=0.0989 pd=0.995 as=0.12095 ps=1.085 w=0.64 l=0.15
X11 a_634_159# a_466_413# VPWR VPB sky130_fd_pr__pfet_01v8_hvt ad=0.1095 pd=1.075 as=0.178875 ps=1.26 w=0.75 l=0.15
X12 a_975_413# a_193_47# a_891_413# VPB sky130_fd_pr__pfet_01v8_hvt ad=0.0882 pd=0.84 as=0.0567 ps=0.69 w=0.42 l=0.15
X13 VGND a_1059_315# a_1017_47# VNB sky130_fd_pr__nfet_01v8 ad=0.1092 pd=1.36 as=0.066 ps=0.745 w=0.42 l=0.15
X14 a_193_47# a_27_47# VGND VNB sky130_fd_pr__nfet_01v8 ad=0.1092 pd=1.36 as=0.0567 ps=0.69 w=0.42 l=0.15
X15 a_891_413# a_27_47# a_634_159# VPB sky130_fd_pr__pfet_01v8_hvt ad=0.0567 pd=0.69 as=0.1095 ps=1.075 w=0.42 l=0.15
X16 a_592_47# a_193_47# a_466_413# VNB sky130_fd_pr__nfet_01v8 ad=0.0696 pd=0.765 as=0.0621 ps=0.705 w=0.36 l=0.15
X17 a_1017_47# a_27_47# a_891_413# VNB sky130_fd_pr__nfet_01v8 ad=0.066 pd=0.745 as=0.0684 ps=0.74 w=0.36 l=0.15
X18 VPWR a_1059_315# a_975_413# VPB sky130_fd_pr__pfet_01v8_hvt ad=0.1113 pd=1.37 as=0.0882 ps=0.84 w=0.42 l=0.15
X19 a_466_413# a_27_47# a_381_47# VNB sky130_fd_pr__nfet_01v8 ad=0.0621 pd=0.705 as=0.0813 ps=0.83 w=0.36 l=0.15
X20 a_193_47# a_27_47# VPWR VPB sky130_fd_pr__pfet_01v8_hvt ad=0.1664 pd=1.8 as=0.0864 ps=0.91 w=0.64 l=0.15
X21 VGND a_891_413# a_1059_315# VNB sky130_fd_pr__nfet_01v8 ad=0.08775 pd=0.92 as=0.169 ps=1.82 w=0.65 l=0.15
X22 a_381_47# D VGND VNB sky130_fd_pr__nfet_01v8 ad=0.0813 pd=0.83 as=0.1092 ps=1.36 w=0.42 l=0.15
X23 VGND CLK a_27_47# VNB sky130_fd_pr__nfet_01v8 ad=0.0567 pd=0.69 as=0.1092 ps=1.36 w=0.42 l=0.15
.ends

.subckt sky130_fd_sc_hd__o21ba_1 A1 A2 B1_N VGND VNB VPB VPWR X
X0 a_222_93# B1_N VGND VNB sky130_fd_pr__nfet_01v8 ad=0.1092 pd=1.36 as=0.10025 ps=0.985 w=0.42 l=0.15
X1 VPWR A1 a_544_297# VPB sky130_fd_pr__pfet_01v8_hvt ad=0.28 pd=2.56 as=0.105 ps=1.21 w=1 l=0.15
X2 VGND a_79_199# X VNB sky130_fd_pr__nfet_01v8 ad=0.10025 pd=0.985 as=0.169 ps=1.82 w=0.65 l=0.15
X3 a_222_93# B1_N VPWR VPB sky130_fd_pr__pfet_01v8_hvt ad=0.1176 pd=1.4 as=0.18575 ps=1.415 w=0.42 l=0.15
X4 VGND A2 a_448_47# VNB sky130_fd_pr__nfet_01v8 ad=0.08775 pd=0.92 as=0.10725 ps=0.98 w=0.65 l=0.15
X5 a_448_47# a_222_93# a_79_199# VNB sky130_fd_pr__nfet_01v8 ad=0.10725 pd=0.98 as=0.169 ps=1.82 w=0.65 l=0.15
X6 a_79_199# a_222_93# VPWR VPB sky130_fd_pr__pfet_01v8_hvt ad=0.165 pd=1.33 as=0.3 ps=2.6 w=1 l=0.15
X7 a_544_297# A2 a_79_199# VPB sky130_fd_pr__pfet_01v8_hvt ad=0.105 pd=1.21 as=0.165 ps=1.33 w=1 l=0.15
X8 a_448_47# A1 VGND VNB sky130_fd_pr__nfet_01v8 ad=0.17225 pd=1.83 as=0.08775 ps=0.92 w=0.65 l=0.15
X9 VPWR a_79_199# X VPB sky130_fd_pr__pfet_01v8_hvt ad=0.18575 pd=1.415 as=0.26 ps=2.52 w=1 l=0.15
.ends

.subckt sky130_fd_sc_hd__or4b_1 A B C D_N VGND VNB VPB VPWR X
X0 X a_215_297# VPWR VPB sky130_fd_pr__pfet_01v8_hvt ad=0.275 pd=2.55 as=0.14825 ps=1.34 w=1 l=0.15
X1 a_109_53# D_N VGND VNB sky130_fd_pr__nfet_01v8 ad=0.1092 pd=1.36 as=0.1092 ps=1.36 w=0.42 l=0.15
X2 a_215_297# a_109_53# VGND VNB sky130_fd_pr__nfet_01v8 ad=0.06405 pd=0.725 as=0.1092 ps=1.36 w=0.42 l=0.15
X3 X a_215_297# VGND VNB sky130_fd_pr__nfet_01v8 ad=0.17875 pd=1.85 as=0.101875 ps=0.99 w=0.65 l=0.15
X4 a_392_297# C a_297_297# VPB sky130_fd_pr__pfet_01v8_hvt ad=0.04515 pd=0.635 as=0.06825 ps=0.745 w=0.42 l=0.15
X5 a_465_297# B a_392_297# VPB sky130_fd_pr__pfet_01v8_hvt ad=0.06405 pd=0.725 as=0.04515 ps=0.635 w=0.42 l=0.15
X6 a_215_297# B VGND VNB sky130_fd_pr__nfet_01v8 ad=0.0567 pd=0.69 as=0.0567 ps=0.69 w=0.42 l=0.15
X7 VPWR A a_465_297# VPB sky130_fd_pr__pfet_01v8_hvt ad=0.14825 pd=1.34 as=0.06405 ps=0.725 w=0.42 l=0.15
X8 a_297_297# a_109_53# a_215_297# VPB sky130_fd_pr__pfet_01v8_hvt ad=0.06825 pd=0.745 as=0.1092 ps=1.36 w=0.42 l=0.15
X9 a_109_53# D_N VPWR VPB sky130_fd_pr__pfet_01v8_hvt ad=0.1092 pd=1.36 as=0.1092 ps=1.36 w=0.42 l=0.15
X10 VGND C a_215_297# VNB sky130_fd_pr__nfet_01v8 ad=0.0567 pd=0.69 as=0.06405 ps=0.725 w=0.42 l=0.15
X11 VGND A a_215_297# VNB sky130_fd_pr__nfet_01v8 ad=0.101875 pd=0.99 as=0.0567 ps=0.69 w=0.42 l=0.15
.ends

.subckt sky130_fd_sc_hd__decap_3 VGND VNB VPB VPWR
X0 VPWR VGND VPWR VPB sky130_fd_pr__pfet_01v8_hvt ad=0.2262 pd=2.26 as=0.4524 ps=4.52 w=0.87 l=0.59
X1 VGND VPWR VGND VNB sky130_fd_pr__nfet_01v8 ad=0.143 pd=1.62 as=0.286 ps=3.24 w=0.55 l=0.59
.ends

.subckt sky130_fd_sc_hd__buf_2 A VGND VNB VPB VPWR X
X0 VPWR a_27_47# X VPB sky130_fd_pr__pfet_01v8_hvt ad=0.265 pd=2.53 as=0.135 ps=1.27 w=1 l=0.15
X1 X a_27_47# VPWR VPB sky130_fd_pr__pfet_01v8_hvt ad=0.135 pd=1.27 as=0.149 ps=1.325 w=1 l=0.15
X2 VPWR A a_27_47# VPB sky130_fd_pr__pfet_01v8_hvt ad=0.149 pd=1.325 as=0.1664 ps=1.8 w=0.64 l=0.15
X3 X a_27_47# VGND VNB sky130_fd_pr__nfet_01v8 ad=0.08775 pd=0.92 as=0.097 ps=0.975 w=0.65 l=0.15
X4 VGND a_27_47# X VNB sky130_fd_pr__nfet_01v8 ad=0.17225 pd=1.83 as=0.08775 ps=0.92 w=0.65 l=0.15
X5 VGND A a_27_47# VNB sky130_fd_pr__nfet_01v8 ad=0.097 pd=0.975 as=0.1092 ps=1.36 w=0.42 l=0.15
.ends

.subckt sky130_fd_sc_hd__mux2_1 A0 A1 S VGND VNB VPB VPWR X
X0 VPWR a_505_21# a_535_374# VPB sky130_fd_pr__pfet_01v8_hvt ad=0.0693 pd=0.75 as=0.0441 ps=0.63 w=0.42 l=0.15
X1 a_505_21# S VPWR VPB sky130_fd_pr__pfet_01v8_hvt ad=0.1176 pd=1.4 as=0.0693 ps=0.75 w=0.42 l=0.15
X2 a_218_374# S VPWR VPB sky130_fd_pr__pfet_01v8_hvt ad=0.07665 pd=0.785 as=0.15835 ps=1.395 w=0.42 l=0.15
X3 VGND a_505_21# a_439_47# VNB sky130_fd_pr__nfet_01v8 ad=0.1449 pd=1.11 as=0.0693 ps=0.75 w=0.42 l=0.15
X4 a_76_199# A0 a_218_374# VPB sky130_fd_pr__pfet_01v8_hvt ad=0.1932 pd=1.34 as=0.07665 ps=0.785 w=0.42 l=0.15
X5 a_505_21# S VGND VNB sky130_fd_pr__nfet_01v8 ad=0.1092 pd=1.36 as=0.1449 ps=1.11 w=0.42 l=0.15
X6 a_439_47# A0 a_76_199# VNB sky130_fd_pr__nfet_01v8 ad=0.0693 pd=0.75 as=0.09975 ps=0.895 w=0.42 l=0.15
X7 a_535_374# A1 a_76_199# VPB sky130_fd_pr__pfet_01v8_hvt ad=0.0441 pd=0.63 as=0.1932 ps=1.34 w=0.42 l=0.15
X8 a_76_199# A1 a_218_47# VNB sky130_fd_pr__nfet_01v8 ad=0.09975 pd=0.895 as=0.0693 ps=0.75 w=0.42 l=0.15
X9 a_218_47# S VGND VNB sky130_fd_pr__nfet_01v8 ad=0.0693 pd=0.75 as=0.11285 ps=1.045 w=0.42 l=0.15
X10 VPWR a_76_199# X VPB sky130_fd_pr__pfet_01v8_hvt ad=0.15835 pd=1.395 as=0.26 ps=2.52 w=1 l=0.15
X11 VGND a_76_199# X VNB sky130_fd_pr__nfet_01v8 ad=0.11285 pd=1.045 as=0.169 ps=1.82 w=0.65 l=0.15
.ends

.subckt sky130_fd_sc_hd__decap_4 VGND VNB VPB VPWR
X0 VPWR VGND VPWR VPB sky130_fd_pr__pfet_01v8_hvt ad=0.2262 pd=2.26 as=0.4524 ps=4.52 w=0.87 l=1.05
X1 VGND VPWR VGND VNB sky130_fd_pr__nfet_01v8 ad=0.143 pd=1.62 as=0.286 ps=3.24 w=0.55 l=1.05
.ends

.subckt sky130_fd_sc_hd__decap_8 VGND VNB VPB VPWR
X0 VPWR VGND VPWR VPB sky130_fd_pr__pfet_01v8_hvt ad=0.2262 pd=2.26 as=0.4524 ps=4.52 w=0.87 l=2.89
X1 VGND VPWR VGND VNB sky130_fd_pr__nfet_01v8 ad=0.143 pd=1.62 as=0.286 ps=3.24 w=0.55 l=2.89
.ends

.subckt sky130_fd_sc_hd__a31o_1 A1 A2 A3 B1 VGND VNB VPB VPWR X
X0 VPWR a_80_21# X VPB sky130_fd_pr__pfet_01v8_hvt ad=0.1725 pd=1.345 as=0.265 ps=2.53 w=1 l=0.15
X1 a_209_297# A3 VPWR VPB sky130_fd_pr__pfet_01v8_hvt ad=0.16 pd=1.32 as=0.1725 ps=1.345 w=1 l=0.15
X2 a_303_47# A2 a_209_47# VNB sky130_fd_pr__nfet_01v8 ad=0.10725 pd=0.98 as=0.104 ps=0.97 w=0.65 l=0.15
X3 a_209_47# A3 VGND VNB sky130_fd_pr__nfet_01v8 ad=0.104 pd=0.97 as=0.112125 ps=0.995 w=0.65 l=0.15
X4 VGND a_80_21# X VNB sky130_fd_pr__nfet_01v8 ad=0.112125 pd=0.995 as=0.17225 ps=1.83 w=0.65 l=0.15
X5 VGND B1 a_80_21# VNB sky130_fd_pr__nfet_01v8 ad=0.208 pd=1.94 as=0.10725 ps=0.98 w=0.65 l=0.15
X6 a_80_21# A1 a_303_47# VNB sky130_fd_pr__nfet_01v8 ad=0.10725 pd=0.98 as=0.10725 ps=0.98 w=0.65 l=0.15
X7 VPWR A2 a_209_297# VPB sky130_fd_pr__pfet_01v8_hvt ad=0.165 pd=1.33 as=0.16 ps=1.32 w=1 l=0.15
X8 a_80_21# B1 a_209_297# VPB sky130_fd_pr__pfet_01v8_hvt ad=0.32 pd=2.64 as=0.165 ps=1.33 w=1 l=0.15
X9 a_209_297# A1 VPWR VPB sky130_fd_pr__pfet_01v8_hvt ad=0.165 pd=1.33 as=0.165 ps=1.33 w=1 l=0.15
.ends

.subckt sky130_fd_sc_hd__dlygate4sd3_1 A VGND VNB VPB VPWR X
X0 VPWR A a_49_47# VPB sky130_fd_pr__pfet_01v8_hvt ad=0.0567 pd=0.69 as=0.1092 ps=1.36 w=0.42 l=0.15
X1 VGND a_285_47# a_391_47# VNB sky130_fd_pr__nfet_01v8 ad=0.097 pd=0.975 as=0.1092 ps=1.36 w=0.42 l=0.5
X2 X a_391_47# VPWR VPB sky130_fd_pr__pfet_01v8_hvt ad=0.26 pd=2.52 as=0.14075 ps=1.325 w=1 l=0.15
X3 VGND A a_49_47# VNB sky130_fd_pr__nfet_01v8 ad=0.0567 pd=0.69 as=0.1092 ps=1.36 w=0.42 l=0.15
X4 VPWR a_285_47# a_391_47# VPB sky130_fd_pr__pfet_01v8_hvt ad=0.14075 pd=1.325 as=0.1092 ps=1.36 w=0.42 l=0.5
X5 a_285_47# a_49_47# VGND VNB sky130_fd_pr__nfet_01v8 ad=0.1092 pd=1.36 as=0.0567 ps=0.69 w=0.42 l=0.5
X6 a_285_47# a_49_47# VPWR VPB sky130_fd_pr__pfet_01v8_hvt ad=0.1092 pd=1.36 as=0.0567 ps=0.69 w=0.42 l=0.5
X7 X a_391_47# VGND VNB sky130_fd_pr__nfet_01v8 ad=0.169 pd=1.82 as=0.097 ps=0.975 w=0.65 l=0.15
.ends

.subckt sky130_fd_sc_hd__or4_1 A B C D VGND VNB VPB VPWR X
X0 a_27_297# B VGND VNB sky130_fd_pr__nfet_01v8 ad=0.0567 pd=0.69 as=0.0567 ps=0.69 w=0.42 l=0.15
X1 a_27_297# D VGND VNB sky130_fd_pr__nfet_01v8 ad=0.0693 pd=0.75 as=0.1092 ps=1.36 w=0.42 l=0.15
X2 a_277_297# B a_205_297# VPB sky130_fd_pr__pfet_01v8_hvt ad=0.0693 pd=0.75 as=0.0441 ps=0.63 w=0.42 l=0.15
X3 VPWR A a_277_297# VPB sky130_fd_pr__pfet_01v8_hvt ad=0.14825 pd=1.34 as=0.0693 ps=0.75 w=0.42 l=0.15
X4 X a_27_297# VGND VNB sky130_fd_pr__nfet_01v8 ad=0.1755 pd=1.84 as=0.101875 ps=0.99 w=0.65 l=0.15
X5 a_205_297# C a_109_297# VPB sky130_fd_pr__pfet_01v8_hvt ad=0.0441 pd=0.63 as=0.0693 ps=0.75 w=0.42 l=0.15
X6 X a_27_297# VPWR VPB sky130_fd_pr__pfet_01v8_hvt ad=0.27 pd=2.54 as=0.14825 ps=1.34 w=1 l=0.15
X7 VGND C a_27_297# VNB sky130_fd_pr__nfet_01v8 ad=0.0567 pd=0.69 as=0.0693 ps=0.75 w=0.42 l=0.15
X8 a_109_297# D a_27_297# VPB sky130_fd_pr__pfet_01v8_hvt ad=0.0693 pd=0.75 as=0.1092 ps=1.36 w=0.42 l=0.15
X9 VGND A a_27_297# VNB sky130_fd_pr__nfet_01v8 ad=0.101875 pd=0.99 as=0.0567 ps=0.69 w=0.42 l=0.15
.ends

.subckt sky130_fd_sc_hd__and2b_1 A_N B VGND VNB VPB VPWR X
X0 VPWR B a_207_413# VPB sky130_fd_pr__pfet_01v8_hvt ad=0.2279 pd=1.74 as=0.0609 ps=0.71 w=0.42 l=0.15
X1 X a_207_413# VPWR VPB sky130_fd_pr__pfet_01v8_hvt ad=0.26 pd=2.52 as=0.2279 ps=1.74 w=1 l=0.15
X2 a_297_47# a_27_413# a_207_413# VNB sky130_fd_pr__nfet_01v8 ad=0.0504 pd=0.66 as=0.1092 ps=1.36 w=0.42 l=0.15
X3 X a_207_413# VGND VNB sky130_fd_pr__nfet_01v8 ad=0.169 pd=1.82 as=0.1013 ps=0.99 w=0.65 l=0.15
X4 a_207_413# a_27_413# VPWR VPB sky130_fd_pr__pfet_01v8_hvt ad=0.0609 pd=0.71 as=0.0714 ps=0.76 w=0.42 l=0.15
X5 VPWR A_N a_27_413# VPB sky130_fd_pr__pfet_01v8_hvt ad=0.0714 pd=0.76 as=0.1092 ps=1.36 w=0.42 l=0.15
X6 VGND B a_297_47# VNB sky130_fd_pr__nfet_01v8 ad=0.1013 pd=0.99 as=0.0504 ps=0.66 w=0.42 l=0.15
X7 a_27_413# A_N VGND VNB sky130_fd_pr__nfet_01v8 ad=0.1092 pd=1.36 as=0.1092 ps=1.36 w=0.42 l=0.15
.ends

.subckt sky130_fd_sc_hd__or3_1 A B C VGND VNB VPB VPWR X
X0 X a_29_53# VPWR VPB sky130_fd_pr__pfet_01v8_hvt ad=0.28 pd=2.56 as=0.14825 ps=1.34 w=1 l=0.15
X1 a_111_297# C a_29_53# VPB sky130_fd_pr__pfet_01v8_hvt ad=0.0441 pd=0.63 as=0.1092 ps=1.36 w=0.42 l=0.15
X2 X a_29_53# VGND VNB sky130_fd_pr__nfet_01v8 ad=0.182 pd=1.86 as=0.101875 ps=0.99 w=0.65 l=0.15
X3 a_183_297# B a_111_297# VPB sky130_fd_pr__pfet_01v8_hvt ad=0.0693 pd=0.75 as=0.0441 ps=0.63 w=0.42 l=0.15
X4 VPWR A a_183_297# VPB sky130_fd_pr__pfet_01v8_hvt ad=0.14825 pd=1.34 as=0.0693 ps=0.75 w=0.42 l=0.15
X5 a_29_53# B VGND VNB sky130_fd_pr__nfet_01v8 ad=0.0567 pd=0.69 as=0.0567 ps=0.69 w=0.42 l=0.15
X6 VGND C a_29_53# VNB sky130_fd_pr__nfet_01v8 ad=0.0567 pd=0.69 as=0.1092 ps=1.36 w=0.42 l=0.15
X7 VGND A a_29_53# VNB sky130_fd_pr__nfet_01v8 ad=0.101875 pd=0.99 as=0.0567 ps=0.69 w=0.42 l=0.15
.ends

.subckt sky130_fd_sc_hd__inv_2 A VGND VNB VPB VPWR Y
X0 Y A VPWR VPB sky130_fd_pr__pfet_01v8_hvt ad=0.135 pd=1.27 as=0.26 ps=2.52 w=1 l=0.15
X1 VGND A Y VNB sky130_fd_pr__nfet_01v8 ad=0.169 pd=1.82 as=0.08775 ps=0.92 w=0.65 l=0.15
X2 Y A VGND VNB sky130_fd_pr__nfet_01v8 ad=0.08775 pd=0.92 as=0.169 ps=1.82 w=0.65 l=0.15
X3 VPWR A Y VPB sky130_fd_pr__pfet_01v8_hvt ad=0.26 pd=2.52 as=0.135 ps=1.27 w=1 l=0.15
.ends

.subckt sky130_fd_sc_hd__and2b_2 A_N B VGND VNB VPB VPWR X
X0 VPWR a_212_413# X VPB sky130_fd_pr__pfet_01v8_hvt ad=0.26 pd=2.52 as=0.135 ps=1.27 w=1 l=0.15
X1 a_297_47# a_27_413# a_212_413# VNB sky130_fd_pr__nfet_01v8 ad=0.0567 pd=0.69 as=0.1092 ps=1.36 w=0.42 l=0.15
X2 X a_212_413# VPWR VPB sky130_fd_pr__pfet_01v8_hvt ad=0.135 pd=1.27 as=0.22895 ps=1.745 w=1 l=0.15
X3 X a_212_413# VGND VNB sky130_fd_pr__nfet_01v8 ad=0.08775 pd=0.92 as=0.101875 ps=0.99 w=0.65 l=0.15
X4 a_212_413# a_27_413# VPWR VPB sky130_fd_pr__pfet_01v8_hvt ad=0.0609 pd=0.71 as=0.07665 ps=0.785 w=0.42 l=0.15
X5 VPWR A_N a_27_413# VPB sky130_fd_pr__pfet_01v8_hvt ad=0.07665 pd=0.785 as=0.1092 ps=1.36 w=0.42 l=0.15
X6 VPWR B a_212_413# VPB sky130_fd_pr__pfet_01v8_hvt ad=0.22895 pd=1.745 as=0.0609 ps=0.71 w=0.42 l=0.15
X7 VGND B a_297_47# VNB sky130_fd_pr__nfet_01v8 ad=0.101875 pd=0.99 as=0.0567 ps=0.69 w=0.42 l=0.15
X8 VGND a_212_413# X VNB sky130_fd_pr__nfet_01v8 ad=0.1755 pd=1.84 as=0.08775 ps=0.92 w=0.65 l=0.15
X9 a_27_413# A_N VGND VNB sky130_fd_pr__nfet_01v8 ad=0.1092 pd=1.36 as=0.1092 ps=1.36 w=0.42 l=0.15
.ends

.subckt sky130_fd_sc_hd__decap_6 VGND VNB VPB VPWR
X0 VPWR VGND VPWR VPB sky130_fd_pr__pfet_01v8_hvt ad=0.2262 pd=2.26 as=0.4524 ps=4.52 w=0.87 l=1.97
X1 VGND VPWR VGND VNB sky130_fd_pr__nfet_01v8 ad=0.143 pd=1.62 as=0.286 ps=3.24 w=0.55 l=1.97
.ends

.subckt sky130_fd_sc_hd__clkbuf_16 A VGND VNB VPB VPWR X
X0 VPWR A a_110_47# VPB sky130_fd_pr__pfet_01v8_hvt ad=0.14 pd=1.28 as=0.14 ps=1.28 w=1 l=0.15
X1 VPWR a_110_47# X VPB sky130_fd_pr__pfet_01v8_hvt ad=0.14 pd=1.28 as=0.14 ps=1.28 w=1 l=0.15
X2 X a_110_47# VPWR VPB sky130_fd_pr__pfet_01v8_hvt ad=0.14 pd=1.28 as=0.14 ps=1.28 w=1 l=0.15
X3 X a_110_47# VPWR VPB sky130_fd_pr__pfet_01v8_hvt ad=0.14 pd=1.28 as=0.14 ps=1.28 w=1 l=0.15
X4 VPWR a_110_47# X VPB sky130_fd_pr__pfet_01v8_hvt ad=0.14 pd=1.28 as=0.14 ps=1.28 w=1 l=0.15
X5 VPWR a_110_47# X VPB sky130_fd_pr__pfet_01v8_hvt ad=0.265 pd=2.53 as=0.14 ps=1.28 w=1 l=0.15
X6 a_110_47# A VPWR VPB sky130_fd_pr__pfet_01v8_hvt ad=0.14 pd=1.28 as=0.265 ps=2.53 w=1 l=0.15
X7 a_110_47# A VGND VNB sky130_fd_pr__nfet_01v8 ad=0.0588 pd=0.7 as=0.0588 ps=0.7 w=0.42 l=0.15
X8 VGND a_110_47# X VNB sky130_fd_pr__nfet_01v8 ad=0.0588 pd=0.7 as=0.0588 ps=0.7 w=0.42 l=0.15
X9 X a_110_47# VGND VNB sky130_fd_pr__nfet_01v8 ad=0.0588 pd=0.7 as=0.0588 ps=0.7 w=0.42 l=0.15
X10 VGND a_110_47# X VNB sky130_fd_pr__nfet_01v8 ad=0.0588 pd=0.7 as=0.0588 ps=0.7 w=0.42 l=0.15
X11 a_110_47# A VPWR VPB sky130_fd_pr__pfet_01v8_hvt ad=0.14 pd=1.28 as=0.14 ps=1.28 w=1 l=0.15
X12 VGND A a_110_47# VNB sky130_fd_pr__nfet_01v8 ad=0.0588 pd=0.7 as=0.0588 ps=0.7 w=0.42 l=0.15
X13 VGND a_110_47# X VNB sky130_fd_pr__nfet_01v8 ad=0.05775 pd=0.695 as=0.0588 ps=0.7 w=0.42 l=0.15
X14 VPWR a_110_47# X VPB sky130_fd_pr__pfet_01v8_hvt ad=0.14 pd=1.28 as=0.14 ps=1.28 w=1 l=0.15
X15 X a_110_47# VPWR VPB sky130_fd_pr__pfet_01v8_hvt ad=0.14 pd=1.28 as=0.14 ps=1.28 w=1 l=0.15
X16 VGND A a_110_47# VNB sky130_fd_pr__nfet_01v8 ad=0.0588 pd=0.7 as=0.0588 ps=0.7 w=0.42 l=0.15
X17 VGND a_110_47# X VNB sky130_fd_pr__nfet_01v8 ad=0.1113 pd=1.37 as=0.0588 ps=0.7 w=0.42 l=0.15
X18 VPWR a_110_47# X VPB sky130_fd_pr__pfet_01v8_hvt ad=0.1375 pd=1.275 as=0.14 ps=1.28 w=1 l=0.15
X19 VGND a_110_47# X VNB sky130_fd_pr__nfet_01v8 ad=0.0588 pd=0.7 as=0.0588 ps=0.7 w=0.42 l=0.15
X20 X a_110_47# VPWR VPB sky130_fd_pr__pfet_01v8_hvt ad=0.14 pd=1.28 as=0.1375 ps=1.275 w=1 l=0.15
X21 a_110_47# A VGND VNB sky130_fd_pr__nfet_01v8 ad=0.0588 pd=0.7 as=0.1113 ps=1.37 w=0.42 l=0.15
X22 VPWR A a_110_47# VPB sky130_fd_pr__pfet_01v8_hvt ad=0.14 pd=1.28 as=0.14 ps=1.28 w=1 l=0.15
X23 VPWR a_110_47# X VPB sky130_fd_pr__pfet_01v8_hvt ad=0.14 pd=1.28 as=0.14 ps=1.28 w=1 l=0.15
X24 VPWR a_110_47# X VPB sky130_fd_pr__pfet_01v8_hvt ad=0.14 pd=1.28 as=0.14 ps=1.28 w=1 l=0.15
X25 VGND a_110_47# X VNB sky130_fd_pr__nfet_01v8 ad=0.0588 pd=0.7 as=0.0588 ps=0.7 w=0.42 l=0.15
X26 X a_110_47# VPWR VPB sky130_fd_pr__pfet_01v8_hvt ad=0.14 pd=1.28 as=0.14 ps=1.28 w=1 l=0.15
X27 VGND a_110_47# X VNB sky130_fd_pr__nfet_01v8 ad=0.0588 pd=0.7 as=0.0588 ps=0.7 w=0.42 l=0.15
X28 VGND a_110_47# X VNB sky130_fd_pr__nfet_01v8 ad=0.0588 pd=0.7 as=0.0588 ps=0.7 w=0.42 l=0.15
X29 X a_110_47# VGND VNB sky130_fd_pr__nfet_01v8 ad=0.0588 pd=0.7 as=0.0588 ps=0.7 w=0.42 l=0.15
X30 X a_110_47# VPWR VPB sky130_fd_pr__pfet_01v8_hvt ad=0.14 pd=1.28 as=0.14 ps=1.28 w=1 l=0.15
X31 X a_110_47# VPWR VPB sky130_fd_pr__pfet_01v8_hvt ad=0.14 pd=1.28 as=0.14 ps=1.28 w=1 l=0.15
X32 X a_110_47# VGND VNB sky130_fd_pr__nfet_01v8 ad=0.0588 pd=0.7 as=0.0588 ps=0.7 w=0.42 l=0.15
X33 VPWR a_110_47# X VPB sky130_fd_pr__pfet_01v8_hvt ad=0.14 pd=1.28 as=0.14 ps=1.28 w=1 l=0.15
X34 X a_110_47# VPWR VPB sky130_fd_pr__pfet_01v8_hvt ad=0.14 pd=1.28 as=0.14 ps=1.28 w=1 l=0.15
X35 X a_110_47# VGND VNB sky130_fd_pr__nfet_01v8 ad=0.0588 pd=0.7 as=0.0588 ps=0.7 w=0.42 l=0.15
X36 X a_110_47# VGND VNB sky130_fd_pr__nfet_01v8 ad=0.0588 pd=0.7 as=0.0588 ps=0.7 w=0.42 l=0.15
X37 X a_110_47# VGND VNB sky130_fd_pr__nfet_01v8 ad=0.0588 pd=0.7 as=0.0588 ps=0.7 w=0.42 l=0.15
X38 X a_110_47# VGND VNB sky130_fd_pr__nfet_01v8 ad=0.0588 pd=0.7 as=0.0588 ps=0.7 w=0.42 l=0.15
X39 X a_110_47# VGND VNB sky130_fd_pr__nfet_01v8 ad=0.0588 pd=0.7 as=0.05775 ps=0.695 w=0.42 l=0.15
.ends

.subckt sky130_fd_sc_hd__clkbuf_1 A VGND VNB VPB VPWR X
X0 VPWR a_75_212# X VPB sky130_fd_pr__pfet_01v8_hvt ad=0.11455 pd=1.08 as=0.2054 ps=2.1 w=0.79 l=0.15
X1 a_75_212# A VGND VNB sky130_fd_pr__nfet_01v8 ad=0.1352 pd=1.56 as=0.0754 ps=0.81 w=0.52 l=0.15
X2 a_75_212# A VPWR VPB sky130_fd_pr__pfet_01v8_hvt ad=0.2054 pd=2.1 as=0.11455 ps=1.08 w=0.79 l=0.15
X3 VGND a_75_212# X VNB sky130_fd_pr__nfet_01v8 ad=0.0754 pd=0.81 as=0.1352 ps=1.56 w=0.52 l=0.15
.ends

.subckt sky130_fd_sc_hd__buf_1 A VGND VNB VPB VPWR X
X0 VPWR A a_27_47# VPB sky130_fd_pr__pfet_01v8_hvt ad=0.11455 pd=1.08 as=0.2054 ps=2.1 w=0.79 l=0.15
X1 X a_27_47# VGND VNB sky130_fd_pr__nfet_01v8 ad=0.1352 pd=1.56 as=0.0754 ps=0.81 w=0.52 l=0.15
X2 X a_27_47# VPWR VPB sky130_fd_pr__pfet_01v8_hvt ad=0.2054 pd=2.1 as=0.11455 ps=1.08 w=0.79 l=0.15
X3 VGND A a_27_47# VNB sky130_fd_pr__nfet_01v8 ad=0.0754 pd=0.81 as=0.1352 ps=1.56 w=0.52 l=0.15
.ends

.subckt sky130_fd_sc_hd__o31a_1 A1 A2 A3 B1 VGND VNB VPB VPWR X
X0 a_103_199# B1 a_253_47# VNB sky130_fd_pr__nfet_01v8 ad=0.2015 pd=1.92 as=0.10725 ps=0.98 w=0.65 l=0.15
X1 VPWR a_103_199# X VPB sky130_fd_pr__pfet_01v8_hvt ad=0.195 pd=1.39 as=0.36 ps=2.72 w=1 l=0.15
X2 a_337_297# A2 a_253_297# VPB sky130_fd_pr__pfet_01v8_hvt ad=0.165 pd=1.33 as=0.135 ps=1.27 w=1 l=0.15
X3 a_103_199# A3 a_337_297# VPB sky130_fd_pr__pfet_01v8_hvt ad=0.2125 pd=1.425 as=0.165 ps=1.33 w=1 l=0.15
X4 a_253_297# A1 VPWR VPB sky130_fd_pr__pfet_01v8_hvt ad=0.135 pd=1.27 as=0.195 ps=1.39 w=1 l=0.15
X5 VPWR B1 a_103_199# VPB sky130_fd_pr__pfet_01v8_hvt ad=0.345 pd=2.69 as=0.2125 ps=1.425 w=1 l=0.15
X6 VGND a_103_199# X VNB sky130_fd_pr__nfet_01v8 ad=0.12675 pd=1.04 as=0.234 ps=2.02 w=0.65 l=0.15
X7 a_253_47# A1 VGND VNB sky130_fd_pr__nfet_01v8 ad=0.08775 pd=0.92 as=0.12675 ps=1.04 w=0.65 l=0.15
X8 a_253_47# A3 VGND VNB sky130_fd_pr__nfet_01v8 ad=0.10725 pd=0.98 as=0.10725 ps=0.98 w=0.65 l=0.15
X9 VGND A2 a_253_47# VNB sky130_fd_pr__nfet_01v8 ad=0.10725 pd=0.98 as=0.08775 ps=0.92 w=0.65 l=0.15
.ends

.subckt sky130_fd_sc_hd__nor2_1 A B VGND VNB VPB VPWR Y
X0 VPWR A a_109_297# VPB sky130_fd_pr__pfet_01v8_hvt ad=0.26 pd=2.52 as=0.105 ps=1.21 w=1 l=0.15
X1 VGND A Y VNB sky130_fd_pr__nfet_01v8 ad=0.169 pd=1.82 as=0.08775 ps=0.92 w=0.65 l=0.15
X2 a_109_297# B Y VPB sky130_fd_pr__pfet_01v8_hvt ad=0.105 pd=1.21 as=0.26 ps=2.52 w=1 l=0.15
X3 Y B VGND VNB sky130_fd_pr__nfet_01v8 ad=0.08775 pd=0.92 as=0.169 ps=1.82 w=0.65 l=0.15
.ends

.subckt sky130_fd_sc_hd__o41a_1 A1 A2 A3 A4 B1 VGND VNB VPB VPWR X
X0 VGND A4 a_321_47# VNB sky130_fd_pr__nfet_01v8 ad=0.1235 pd=1.03 as=0.08775 ps=0.92 w=0.65 l=0.15
X1 a_321_47# A3 VGND VNB sky130_fd_pr__nfet_01v8 ad=0.12675 pd=1.04 as=0.1235 ps=1.03 w=0.65 l=0.15
X2 a_103_21# B1 VPWR VPB sky130_fd_pr__pfet_01v8_hvt ad=0.26 pd=1.52 as=0.135 ps=1.27 w=1 l=0.15
X3 VPWR a_103_21# X VPB sky130_fd_pr__pfet_01v8_hvt ad=0.135 pd=1.27 as=0.425 ps=2.85 w=1 l=0.15
X4 VGND a_103_21# X VNB sky130_fd_pr__nfet_01v8 ad=0.169 pd=1.82 as=0.247 ps=2.06 w=0.65 l=0.15
X5 VGND A2 a_321_47# VNB sky130_fd_pr__nfet_01v8 ad=0.12675 pd=1.04 as=0.12675 ps=1.04 w=0.65 l=0.15
X6 a_321_47# A1 VGND VNB sky130_fd_pr__nfet_01v8 ad=0.195 pd=1.9 as=0.12675 ps=1.04 w=0.65 l=0.15
X7 a_511_297# A3 a_393_297# VPB sky130_fd_pr__pfet_01v8_hvt ad=0.195 pd=1.39 as=0.22 ps=1.44 w=1 l=0.15
X8 a_619_297# A2 a_511_297# VPB sky130_fd_pr__pfet_01v8_hvt ad=0.195 pd=1.39 as=0.195 ps=1.39 w=1 l=0.15
X9 a_321_47# B1 a_103_21# VNB sky130_fd_pr__nfet_01v8 ad=0.08775 pd=0.92 as=0.169 ps=1.82 w=0.65 l=0.15
X10 a_393_297# A4 a_103_21# VPB sky130_fd_pr__pfet_01v8_hvt ad=0.22 pd=1.44 as=0.26 ps=1.52 w=1 l=0.15
X11 VPWR A1 a_619_297# VPB sky130_fd_pr__pfet_01v8_hvt ad=0.28 pd=2.56 as=0.195 ps=1.39 w=1 l=0.15
.ends

.subckt sky130_fd_sc_hd__or2_1 A B VGND VNB VPB VPWR X
X0 VGND A a_68_297# VNB sky130_fd_pr__nfet_01v8 ad=0.10025 pd=0.985 as=0.0567 ps=0.69 w=0.42 l=0.15
X1 a_68_297# B VGND VNB sky130_fd_pr__nfet_01v8 ad=0.0567 pd=0.69 as=0.1092 ps=1.36 w=0.42 l=0.15
X2 X a_68_297# VGND VNB sky130_fd_pr__nfet_01v8 ad=0.169 pd=1.82 as=0.10025 ps=0.985 w=0.65 l=0.15
X3 VPWR A a_150_297# VPB sky130_fd_pr__pfet_01v8_hvt ad=0.14575 pd=1.335 as=0.0441 ps=0.63 w=0.42 l=0.15
X4 X a_68_297# VPWR VPB sky130_fd_pr__pfet_01v8_hvt ad=0.34 pd=2.68 as=0.14575 ps=1.335 w=1 l=0.15
X5 a_150_297# B a_68_297# VPB sky130_fd_pr__pfet_01v8_hvt ad=0.0441 pd=0.63 as=0.1092 ps=1.36 w=0.42 l=0.15
.ends

.subckt sky130_ef_sc_hd__decap_12 VGND VPWR VPB VNB
X0 VPWR VGND VPWR VPB sky130_fd_pr__pfet_01v8_hvt ad=0.2262 pd=2.26 as=0.4524 ps=4.52 w=0.87 l=4.73
X1 VGND VPWR VGND VNB sky130_fd_pr__nfet_01v8 ad=0.143 pd=1.62 as=0.286 ps=3.24 w=0.55 l=4.73
.ends

.subckt sky130_fd_sc_hd__o21a_1 A1 A2 B1 VGND VNB VPB VPWR X
X0 VPWR A1 a_382_297# VPB sky130_fd_pr__pfet_01v8_hvt ad=0.26 pd=2.52 as=0.1525 ps=1.305 w=1 l=0.15
X1 a_297_47# B1 a_79_21# VNB sky130_fd_pr__nfet_01v8 ad=0.10075 pd=0.96 as=0.169 ps=1.82 w=0.65 l=0.15
X2 a_297_47# A1 VGND VNB sky130_fd_pr__nfet_01v8 ad=0.169 pd=1.82 as=0.08775 ps=0.92 w=0.65 l=0.15
X3 VGND A2 a_297_47# VNB sky130_fd_pr__nfet_01v8 ad=0.08775 pd=0.92 as=0.10075 ps=0.96 w=0.65 l=0.15
X4 VPWR a_79_21# X VPB sky130_fd_pr__pfet_01v8_hvt ad=0.3275 pd=1.655 as=0.28 ps=2.56 w=1 l=0.15
X5 a_79_21# B1 VPWR VPB sky130_fd_pr__pfet_01v8_hvt ad=0.195 pd=1.39 as=0.3275 ps=1.655 w=1 l=0.15
X6 a_382_297# A2 a_79_21# VPB sky130_fd_pr__pfet_01v8_hvt ad=0.1525 pd=1.305 as=0.195 ps=1.39 w=1 l=0.15
X7 VGND a_79_21# X VNB sky130_fd_pr__nfet_01v8 ad=0.169 pd=1.82 as=0.169 ps=1.82 w=0.65 l=0.15
.ends

.subckt bit4_encoder bus0[0] bus0[1] bus0[2] bus0[3] bus1[0] bus1[2] clk compr[0]
+ compr[11] compr[12] compr[13] compr[14] compr[1] compr[2] compr[3] compr[4] compr[5]
+ compr[6] compr[7] compr[8] compr[9] bus2[0] bus2[2] bus1[1] bus1[3] VPWR bus2[1]
+ bus2[3] compr[10] VGND
X_83_ clknet_1_0__leaf_clk _05_ VGND VGND VPWR VPWR net27 sky130_fd_sc_hd__dfxtp_1
X_49_ net2 _21_ net3 VGND VGND VPWR VPWR _22_ sky130_fd_sc_hd__o21ba_1
X_66_ net15 _33_ net2 _27_ VGND VGND VPWR VPWR _36_ sky130_fd_sc_hd__or4b_1
XPHY_EDGE_ROW_12_Left_25 VGND VGND VPWR VPWR sky130_fd_sc_hd__decap_3
Xoutput20 net20 VGND VGND VPWR VPWR bus1[0] sky130_fd_sc_hd__buf_2
XPHY_EDGE_ROW_12_Right_12 VGND VGND VPWR VPWR sky130_fd_sc_hd__decap_3
XPHY_EDGE_ROW_0_Left_13 VGND VGND VPWR VPWR sky130_fd_sc_hd__decap_3
X_82_ clknet_1_0__leaf_clk _04_ VGND VGND VPWR VPWR net26 sky130_fd_sc_hd__dfxtp_1
X_65_ net28 _35_ _15_ VGND VGND VPWR VPWR _04_ sky130_fd_sc_hd__mux2_1
X_48_ net14 _20_ net15 VGND VGND VPWR VPWR _21_ sky130_fd_sc_hd__o21ba_1
Xoutput21 net21 VGND VGND VPWR VPWR bus1[1] sky130_fd_sc_hd__buf_2
XPHY_EDGE_ROW_6_Right_6 VGND VGND VPWR VPWR sky130_fd_sc_hd__decap_3
X_81_ clknet_1_1__leaf_clk _03_ VGND VGND VPWR VPWR net25 sky130_fd_sc_hd__dfxtp_1
XFILLER_3_36 VGND VGND VPWR VPWR sky130_fd_sc_hd__decap_4
X_47_ net12 _19_ net13 VGND VGND VPWR VPWR _20_ sky130_fd_sc_hd__o21ba_1
XFILLER_0_15 VGND VGND VPWR VPWR sky130_fd_sc_hd__decap_8
X_64_ _27_ _29_ _34_ _33_ VGND VGND VPWR VPWR _35_ sky130_fd_sc_hd__a31o_1
Xhold10 net20 VGND VGND VPWR VPWR net37 sky130_fd_sc_hd__dlygate4sd3_1
Xoutput22 net22 VGND VGND VPWR VPWR bus1[2] sky130_fd_sc_hd__buf_2
X_80_ clknet_1_1__leaf_clk _02_ VGND VGND VPWR VPWR net24 sky130_fd_sc_hd__dfxtp_1
X_63_ net9 net10 net11 net12 VGND VGND VPWR VPWR _34_ sky130_fd_sc_hd__or4_1